*SPEF "ieee 1481-1999"
*DESIGN "top_test"
*DATE "03:19:19 Friday March 27, 2026"
*VENDOR "The OpenROAD Project"
*PROGRAM "OpenROAD"
*VERSION "b16bda7e82721d10566ff7e2b68f1ff0be9f9e38"
*DESIGN_FLOW "NAME_SCOPE LOCAL" "PIN_CAP NONE"
*DIVIDER /
*DELIMITER :
*BUS_DELIMITER []
*T_UNIT 1 NS
*C_UNIT 1 PF
*R_UNIT 1 OHM
*L_UNIT 1 HENRY

*NAME_MAP
*3 addr[0]
*4 addr[1]
*5 addr[2]
*6 addr[3]
*7 addr[4]
*8 addr[5]
*9 clk
*10 cs
*11 din[0]
*12 din[1]
*13 din[2]
*14 din[3]
*15 din[4]
*16 din[5]
*17 din[6]
*18 din[7]
*19 dout[0]
*20 dout[1]
*21 dout[2]
*22 dout[3]
*23 dout[4]
*24 dout[5]
*25 dout[6]
*26 dout[7]
*27 rst_n
*28 we
*31 net1
*32 net2
*33 net3
*34 net4
*35 net5
*36 net6
*37 net7
*38 net8
*39 ANTENNA_1
*40 ANTENNA_10
*41 ANTENNA_11
*42 ANTENNA_12
*43 ANTENNA_2
*44 ANTENNA_3
*45 ANTENNA_4
*46 ANTENNA_5
*47 ANTENNA_6
*48 ANTENNA_7
*49 ANTENNA_8
*50 ANTENNA_9
*51 FILLER_0_0_109
*52 FILLER_0_0_113
*53 FILLER_0_0_125
*54 FILLER_0_0_137
*55 FILLER_0_0_141
*56 FILLER_0_0_15
*57 FILLER_0_0_153
*58 FILLER_0_0_161
*59 FILLER_0_0_169
*60 FILLER_0_0_181
*61 FILLER_0_0_189
*62 FILLER_0_0_197
*63 FILLER_0_0_205
*64 FILLER_0_0_210
*65 FILLER_0_0_222
*66 FILLER_0_0_225
*67 FILLER_0_0_237
*68 FILLER_0_0_249
*69 FILLER_0_0_253
*70 FILLER_0_0_265
*71 FILLER_0_0_27
*72 FILLER_0_0_277
*73 FILLER_0_0_281
*74 FILLER_0_0_29
*75 FILLER_0_0_293
*76 FILLER_0_0_3
*77 FILLER_0_0_305
*78 FILLER_0_0_309
*79 FILLER_0_0_321
*80 FILLER_0_0_333
*81 FILLER_0_0_337
*82 FILLER_0_0_349
*83 FILLER_0_0_361
*84 FILLER_0_0_365
*85 FILLER_0_0_377
*86 FILLER_0_0_389
*87 FILLER_0_0_393
*88 FILLER_0_0_405
*89 FILLER_0_0_41
*90 FILLER_0_0_53
*91 FILLER_0_0_57
*92 FILLER_0_0_69
*93 FILLER_0_0_81
*94 FILLER_0_0_85
*95 FILLER_0_0_97
*96 FILLER_0_10_15
*97 FILLER_0_10_202
*98 FILLER_0_10_214
*99 FILLER_0_10_226
*100 FILLER_0_10_228
*101 FILLER_0_10_240
*102 FILLER_0_10_252
*103 FILLER_0_10_264
*104 FILLER_0_10_27
*105 FILLER_0_10_276
*106 FILLER_0_10_282
*107 FILLER_0_10_284
*108 FILLER_0_10_29
*109 FILLER_0_10_296
*110 FILLER_0_10_3
*111 FILLER_0_10_308
*112 FILLER_0_10_320
*113 FILLER_0_10_332
*114 FILLER_0_10_338
*115 FILLER_0_10_340
*116 FILLER_0_10_352
*117 FILLER_0_10_364
*118 FILLER_0_10_376
*119 FILLER_0_10_388
*120 FILLER_0_10_394
*121 FILLER_0_10_396
*122 FILLER_0_10_404
*123 FILLER_0_10_41
*124 FILLER_0_10_53
*125 FILLER_0_10_65
*126 FILLER_0_11_15
*127 FILLER_0_11_202
*128 FILLER_0_11_214
*129 FILLER_0_11_226
*130 FILLER_0_11_238
*131 FILLER_0_11_250
*132 FILLER_0_11_254
*133 FILLER_0_11_256
*134 FILLER_0_11_268
*135 FILLER_0_11_27
*136 FILLER_0_11_280
*137 FILLER_0_11_292
*138 FILLER_0_11_3
*139 FILLER_0_11_304
*140 FILLER_0_11_310
*141 FILLER_0_11_312
*142 FILLER_0_11_324
*143 FILLER_0_11_336
*144 FILLER_0_11_348
*145 FILLER_0_11_360
*146 FILLER_0_11_366
*147 FILLER_0_11_368
*148 FILLER_0_11_380
*149 FILLER_0_11_39
*150 FILLER_0_11_392
*151 FILLER_0_11_404
*152 FILLER_0_11_51
*153 FILLER_0_11_55
*154 FILLER_0_11_57
*155 FILLER_0_11_69
*156 FILLER_0_12_15
*157 FILLER_0_12_202
*158 FILLER_0_12_214
*159 FILLER_0_12_226
*160 FILLER_0_12_228
*161 FILLER_0_12_240
*162 FILLER_0_12_252
*163 FILLER_0_12_264
*164 FILLER_0_12_27
*165 FILLER_0_12_276
*166 FILLER_0_12_282
*167 FILLER_0_12_284
*168 FILLER_0_12_29
*169 FILLER_0_12_296
*170 FILLER_0_12_3
*171 FILLER_0_12_308
*172 FILLER_0_12_320
*173 FILLER_0_12_332
*174 FILLER_0_12_338
*175 FILLER_0_12_340
*176 FILLER_0_12_352
*177 FILLER_0_12_364
*178 FILLER_0_12_376
*179 FILLER_0_12_388
*180 FILLER_0_12_394
*181 FILLER_0_12_396
*182 FILLER_0_12_404
*183 FILLER_0_12_41
*184 FILLER_0_12_53
*185 FILLER_0_12_65
*186 FILLER_0_13_15
*187 FILLER_0_13_202
*188 FILLER_0_13_214
*189 FILLER_0_13_226
*190 FILLER_0_13_238
*191 FILLER_0_13_250
*192 FILLER_0_13_254
*193 FILLER_0_13_256
*194 FILLER_0_13_268
*195 FILLER_0_13_27
*196 FILLER_0_13_280
*197 FILLER_0_13_292
*198 FILLER_0_13_3
*199 FILLER_0_13_304
*200 FILLER_0_13_310
*201 FILLER_0_13_312
*202 FILLER_0_13_324
*203 FILLER_0_13_336
*204 FILLER_0_13_348
*205 FILLER_0_13_360
*206 FILLER_0_13_366
*207 FILLER_0_13_368
*208 FILLER_0_13_380
*209 FILLER_0_13_39
*210 FILLER_0_13_392
*211 FILLER_0_13_404
*212 FILLER_0_13_51
*213 FILLER_0_13_55
*214 FILLER_0_13_57
*215 FILLER_0_13_69
*216 FILLER_0_14_15
*217 FILLER_0_14_202
*218 FILLER_0_14_214
*219 FILLER_0_14_226
*220 FILLER_0_14_228
*221 FILLER_0_14_240
*222 FILLER_0_14_252
*223 FILLER_0_14_264
*224 FILLER_0_14_27
*225 FILLER_0_14_276
*226 FILLER_0_14_282
*227 FILLER_0_14_284
*228 FILLER_0_14_29
*229 FILLER_0_14_296
*230 FILLER_0_14_3
*231 FILLER_0_14_308
*232 FILLER_0_14_320
*233 FILLER_0_14_332
*234 FILLER_0_14_338
*235 FILLER_0_14_340
*236 FILLER_0_14_352
*237 FILLER_0_14_364
*238 FILLER_0_14_376
*239 FILLER_0_14_388
*240 FILLER_0_14_394
*241 FILLER_0_14_396
*242 FILLER_0_14_404
*243 FILLER_0_14_41
*244 FILLER_0_14_53
*245 FILLER_0_14_65
*246 FILLER_0_15_15
*247 FILLER_0_15_202
*248 FILLER_0_15_214
*249 FILLER_0_15_226
*250 FILLER_0_15_238
*251 FILLER_0_15_250
*252 FILLER_0_15_254
*253 FILLER_0_15_256
*254 FILLER_0_15_268
*255 FILLER_0_15_27
*256 FILLER_0_15_280
*257 FILLER_0_15_292
*258 FILLER_0_15_3
*259 FILLER_0_15_304
*260 FILLER_0_15_310
*261 FILLER_0_15_312
*262 FILLER_0_15_324
*263 FILLER_0_15_336
*264 FILLER_0_15_348
*265 FILLER_0_15_360
*266 FILLER_0_15_366
*267 FILLER_0_15_368
*268 FILLER_0_15_380
*269 FILLER_0_15_39
*270 FILLER_0_15_392
*271 FILLER_0_15_404
*272 FILLER_0_15_51
*273 FILLER_0_15_55
*274 FILLER_0_15_57
*275 FILLER_0_15_69
*276 FILLER_0_16_15
*277 FILLER_0_16_202
*278 FILLER_0_16_214
*279 FILLER_0_16_226
*280 FILLER_0_16_228
*281 FILLER_0_16_240
*282 FILLER_0_16_252
*283 FILLER_0_16_264
*284 FILLER_0_16_27
*285 FILLER_0_16_276
*286 FILLER_0_16_282
*287 FILLER_0_16_284
*288 FILLER_0_16_29
*289 FILLER_0_16_296
*290 FILLER_0_16_3
*291 FILLER_0_16_308
*292 FILLER_0_16_320
*293 FILLER_0_16_332
*294 FILLER_0_16_338
*295 FILLER_0_16_340
*296 FILLER_0_16_352
*297 FILLER_0_16_364
*298 FILLER_0_16_376
*299 FILLER_0_16_388
*300 FILLER_0_16_394
*301 FILLER_0_16_396
*302 FILLER_0_16_404
*303 FILLER_0_16_41
*304 FILLER_0_16_53
*305 FILLER_0_16_65
*306 FILLER_0_17_15
*307 FILLER_0_17_202
*308 FILLER_0_17_214
*309 FILLER_0_17_226
*310 FILLER_0_17_238
*311 FILLER_0_17_250
*312 FILLER_0_17_254
*313 FILLER_0_17_256
*314 FILLER_0_17_268
*315 FILLER_0_17_27
*316 FILLER_0_17_280
*317 FILLER_0_17_292
*318 FILLER_0_17_3
*319 FILLER_0_17_304
*320 FILLER_0_17_310
*321 FILLER_0_17_312
*322 FILLER_0_17_324
*323 FILLER_0_17_336
*324 FILLER_0_17_348
*325 FILLER_0_17_360
*326 FILLER_0_17_366
*327 FILLER_0_17_368
*328 FILLER_0_17_380
*329 FILLER_0_17_39
*330 FILLER_0_17_392
*331 FILLER_0_17_404
*332 FILLER_0_17_51
*333 FILLER_0_17_55
*334 FILLER_0_17_57
*335 FILLER_0_17_69
*336 FILLER_0_18_15
*337 FILLER_0_18_202
*338 FILLER_0_18_214
*339 FILLER_0_18_226
*340 FILLER_0_18_228
*341 FILLER_0_18_240
*342 FILLER_0_18_252
*343 FILLER_0_18_264
*344 FILLER_0_18_27
*345 FILLER_0_18_276
*346 FILLER_0_18_282
*347 FILLER_0_18_284
*348 FILLER_0_18_29
*349 FILLER_0_18_296
*350 FILLER_0_18_3
*351 FILLER_0_18_308
*352 FILLER_0_18_320
*353 FILLER_0_18_332
*354 FILLER_0_18_338
*355 FILLER_0_18_340
*356 FILLER_0_18_352
*357 FILLER_0_18_364
*358 FILLER_0_18_376
*359 FILLER_0_18_388
*360 FILLER_0_18_394
*361 FILLER_0_18_396
*362 FILLER_0_18_404
*363 FILLER_0_18_41
*364 FILLER_0_18_53
*365 FILLER_0_18_65
*366 FILLER_0_19_15
*367 FILLER_0_19_202
*368 FILLER_0_19_214
*369 FILLER_0_19_226
*370 FILLER_0_19_238
*371 FILLER_0_19_250
*372 FILLER_0_19_254
*373 FILLER_0_19_256
*374 FILLER_0_19_268
*375 FILLER_0_19_27
*376 FILLER_0_19_280
*377 FILLER_0_19_292
*378 FILLER_0_19_3
*379 FILLER_0_19_304
*380 FILLER_0_19_310
*381 FILLER_0_19_312
*382 FILLER_0_19_324
*383 FILLER_0_19_336
*384 FILLER_0_19_348
*385 FILLER_0_19_360
*386 FILLER_0_19_366
*387 FILLER_0_19_368
*388 FILLER_0_19_380
*389 FILLER_0_19_39
*390 FILLER_0_19_392
*391 FILLER_0_19_404
*392 FILLER_0_19_51
*393 FILLER_0_19_55
*394 FILLER_0_19_57
*395 FILLER_0_19_69
*396 FILLER_0_1_105
*397 FILLER_0_1_111
*398 FILLER_0_1_113
*399 FILLER_0_1_125
*400 FILLER_0_1_137
*401 FILLER_0_1_149
*402 FILLER_0_1_15
*403 FILLER_0_1_161
*404 FILLER_0_1_166
*405 FILLER_0_1_169
*406 FILLER_0_1_181
*407 FILLER_0_1_189
*408 FILLER_0_1_194
*409 FILLER_0_1_208
*410 FILLER_0_1_220
*411 FILLER_0_1_225
*412 FILLER_0_1_237
*413 FILLER_0_1_249
*414 FILLER_0_1_261
*415 FILLER_0_1_27
*416 FILLER_0_1_273
*417 FILLER_0_1_279
*418 FILLER_0_1_281
*419 FILLER_0_1_293
*420 FILLER_0_1_3
*421 FILLER_0_1_305
*422 FILLER_0_1_317
*423 FILLER_0_1_329
*424 FILLER_0_1_335
*425 FILLER_0_1_337
*426 FILLER_0_1_349
*427 FILLER_0_1_361
*428 FILLER_0_1_373
*429 FILLER_0_1_385
*430 FILLER_0_1_39
*431 FILLER_0_1_391
*432 FILLER_0_1_393
*433 FILLER_0_1_405
*434 FILLER_0_1_51
*435 FILLER_0_1_55
*436 FILLER_0_1_57
*437 FILLER_0_1_69
*438 FILLER_0_1_81
*439 FILLER_0_1_93
*440 FILLER_0_20_15
*441 FILLER_0_20_202
*442 FILLER_0_20_214
*443 FILLER_0_20_226
*444 FILLER_0_20_228
*445 FILLER_0_20_240
*446 FILLER_0_20_252
*447 FILLER_0_20_264
*448 FILLER_0_20_27
*449 FILLER_0_20_276
*450 FILLER_0_20_282
*451 FILLER_0_20_284
*452 FILLER_0_20_29
*453 FILLER_0_20_296
*454 FILLER_0_20_3
*455 FILLER_0_20_308
*456 FILLER_0_20_320
*457 FILLER_0_20_332
*458 FILLER_0_20_338
*459 FILLER_0_20_340
*460 FILLER_0_20_352
*461 FILLER_0_20_364
*462 FILLER_0_20_376
*463 FILLER_0_20_388
*464 FILLER_0_20_394
*465 FILLER_0_20_396
*466 FILLER_0_20_404
*467 FILLER_0_20_41
*468 FILLER_0_20_53
*469 FILLER_0_20_65
*470 FILLER_0_21_15
*471 FILLER_0_21_202
*472 FILLER_0_21_214
*473 FILLER_0_21_226
*474 FILLER_0_21_238
*475 FILLER_0_21_250
*476 FILLER_0_21_254
*477 FILLER_0_21_256
*478 FILLER_0_21_268
*479 FILLER_0_21_27
*480 FILLER_0_21_280
*481 FILLER_0_21_292
*482 FILLER_0_21_3
*483 FILLER_0_21_304
*484 FILLER_0_21_310
*485 FILLER_0_21_312
*486 FILLER_0_21_324
*487 FILLER_0_21_336
*488 FILLER_0_21_348
*489 FILLER_0_21_360
*490 FILLER_0_21_366
*491 FILLER_0_21_368
*492 FILLER_0_21_380
*493 FILLER_0_21_39
*494 FILLER_0_21_392
*495 FILLER_0_21_404
*496 FILLER_0_21_51
*497 FILLER_0_21_55
*498 FILLER_0_21_57
*499 FILLER_0_21_69
*500 FILLER_0_22_15
*501 FILLER_0_22_202
*502 FILLER_0_22_214
*503 FILLER_0_22_226
*504 FILLER_0_22_228
*505 FILLER_0_22_240
*506 FILLER_0_22_252
*507 FILLER_0_22_264
*508 FILLER_0_22_27
*509 FILLER_0_22_276
*510 FILLER_0_22_282
*511 FILLER_0_22_284
*512 FILLER_0_22_29
*513 FILLER_0_22_296
*514 FILLER_0_22_3
*515 FILLER_0_22_308
*516 FILLER_0_22_320
*517 FILLER_0_22_332
*518 FILLER_0_22_338
*519 FILLER_0_22_340
*520 FILLER_0_22_352
*521 FILLER_0_22_364
*522 FILLER_0_22_376
*523 FILLER_0_22_388
*524 FILLER_0_22_394
*525 FILLER_0_22_396
*526 FILLER_0_22_404
*527 FILLER_0_22_41
*528 FILLER_0_22_53
*529 FILLER_0_22_65
*530 FILLER_0_23_15
*531 FILLER_0_23_202
*532 FILLER_0_23_214
*533 FILLER_0_23_226
*534 FILLER_0_23_238
*535 FILLER_0_23_250
*536 FILLER_0_23_254
*537 FILLER_0_23_256
*538 FILLER_0_23_268
*539 FILLER_0_23_27
*540 FILLER_0_23_280
*541 FILLER_0_23_292
*542 FILLER_0_23_3
*543 FILLER_0_23_304
*544 FILLER_0_23_310
*545 FILLER_0_23_312
*546 FILLER_0_23_324
*547 FILLER_0_23_336
*548 FILLER_0_23_348
*549 FILLER_0_23_360
*550 FILLER_0_23_366
*551 FILLER_0_23_368
*552 FILLER_0_23_380
*553 FILLER_0_23_39
*554 FILLER_0_23_392
*555 FILLER_0_23_404
*556 FILLER_0_23_51
*557 FILLER_0_23_55
*558 FILLER_0_23_57
*559 FILLER_0_23_69
*560 FILLER_0_24_15
*561 FILLER_0_24_202
*562 FILLER_0_24_214
*563 FILLER_0_24_226
*564 FILLER_0_24_228
*565 FILLER_0_24_240
*566 FILLER_0_24_252
*567 FILLER_0_24_264
*568 FILLER_0_24_27
*569 FILLER_0_24_276
*570 FILLER_0_24_282
*571 FILLER_0_24_284
*572 FILLER_0_24_29
*573 FILLER_0_24_296
*574 FILLER_0_24_3
*575 FILLER_0_24_308
*576 FILLER_0_24_320
*577 FILLER_0_24_332
*578 FILLER_0_24_338
*579 FILLER_0_24_340
*580 FILLER_0_24_352
*581 FILLER_0_24_364
*582 FILLER_0_24_376
*583 FILLER_0_24_388
*584 FILLER_0_24_394
*585 FILLER_0_24_396
*586 FILLER_0_24_404
*587 FILLER_0_24_41
*588 FILLER_0_24_53
*589 FILLER_0_24_65
*590 FILLER_0_25_15
*591 FILLER_0_25_202
*592 FILLER_0_25_214
*593 FILLER_0_25_226
*594 FILLER_0_25_238
*595 FILLER_0_25_250
*596 FILLER_0_25_254
*597 FILLER_0_25_256
*598 FILLER_0_25_268
*599 FILLER_0_25_27
*600 FILLER_0_25_280
*601 FILLER_0_25_292
*602 FILLER_0_25_3
*603 FILLER_0_25_304
*604 FILLER_0_25_310
*605 FILLER_0_25_312
*606 FILLER_0_25_324
*607 FILLER_0_25_336
*608 FILLER_0_25_348
*609 FILLER_0_25_360
*610 FILLER_0_25_366
*611 FILLER_0_25_368
*612 FILLER_0_25_380
*613 FILLER_0_25_39
*614 FILLER_0_25_392
*615 FILLER_0_25_404
*616 FILLER_0_25_51
*617 FILLER_0_25_55
*618 FILLER_0_25_57
*619 FILLER_0_25_69
*620 FILLER_0_26_15
*621 FILLER_0_26_202
*622 FILLER_0_26_214
*623 FILLER_0_26_226
*624 FILLER_0_26_228
*625 FILLER_0_26_240
*626 FILLER_0_26_252
*627 FILLER_0_26_264
*628 FILLER_0_26_27
*629 FILLER_0_26_276
*630 FILLER_0_26_282
*631 FILLER_0_26_284
*632 FILLER_0_26_29
*633 FILLER_0_26_296
*634 FILLER_0_26_3
*635 FILLER_0_26_308
*636 FILLER_0_26_320
*637 FILLER_0_26_332
*638 FILLER_0_26_338
*639 FILLER_0_26_340
*640 FILLER_0_26_352
*641 FILLER_0_26_364
*642 FILLER_0_26_376
*643 FILLER_0_26_388
*644 FILLER_0_26_394
*645 FILLER_0_26_396
*646 FILLER_0_26_404
*647 FILLER_0_26_41
*648 FILLER_0_26_53
*649 FILLER_0_26_65
*650 FILLER_0_27_15
*651 FILLER_0_27_202
*652 FILLER_0_27_214
*653 FILLER_0_27_226
*654 FILLER_0_27_238
*655 FILLER_0_27_250
*656 FILLER_0_27_254
*657 FILLER_0_27_256
*658 FILLER_0_27_268
*659 FILLER_0_27_27
*660 FILLER_0_27_280
*661 FILLER_0_27_292
*662 FILLER_0_27_3
*663 FILLER_0_27_304
*664 FILLER_0_27_310
*665 FILLER_0_27_312
*666 FILLER_0_27_324
*667 FILLER_0_27_336
*668 FILLER_0_27_348
*669 FILLER_0_27_360
*670 FILLER_0_27_366
*671 FILLER_0_27_368
*672 FILLER_0_27_380
*673 FILLER_0_27_39
*674 FILLER_0_27_392
*675 FILLER_0_27_404
*676 FILLER_0_27_51
*677 FILLER_0_27_55
*678 FILLER_0_27_57
*679 FILLER_0_27_69
*680 FILLER_0_28_15
*681 FILLER_0_28_202
*682 FILLER_0_28_214
*683 FILLER_0_28_226
*684 FILLER_0_28_228
*685 FILLER_0_28_240
*686 FILLER_0_28_252
*687 FILLER_0_28_264
*688 FILLER_0_28_27
*689 FILLER_0_28_276
*690 FILLER_0_28_282
*691 FILLER_0_28_284
*692 FILLER_0_28_29
*693 FILLER_0_28_296
*694 FILLER_0_28_3
*695 FILLER_0_28_308
*696 FILLER_0_28_320
*697 FILLER_0_28_332
*698 FILLER_0_28_338
*699 FILLER_0_28_340
*700 FILLER_0_28_352
*701 FILLER_0_28_364
*702 FILLER_0_28_376
*703 FILLER_0_28_388
*704 FILLER_0_28_394
*705 FILLER_0_28_396
*706 FILLER_0_28_404
*707 FILLER_0_28_41
*708 FILLER_0_28_53
*709 FILLER_0_28_65
*710 FILLER_0_29_15
*711 FILLER_0_29_202
*712 FILLER_0_29_214
*713 FILLER_0_29_226
*714 FILLER_0_29_238
*715 FILLER_0_29_250
*716 FILLER_0_29_254
*717 FILLER_0_29_256
*718 FILLER_0_29_268
*719 FILLER_0_29_27
*720 FILLER_0_29_280
*721 FILLER_0_29_292
*722 FILLER_0_29_3
*723 FILLER_0_29_304
*724 FILLER_0_29_310
*725 FILLER_0_29_312
*726 FILLER_0_29_324
*727 FILLER_0_29_336
*728 FILLER_0_29_348
*729 FILLER_0_29_360
*730 FILLER_0_29_366
*731 FILLER_0_29_368
*732 FILLER_0_29_380
*733 FILLER_0_29_39
*734 FILLER_0_29_392
*735 FILLER_0_29_404
*736 FILLER_0_29_51
*737 FILLER_0_29_55
*738 FILLER_0_29_57
*739 FILLER_0_29_69
*740 FILLER_0_2_109
*741 FILLER_0_2_121
*742 FILLER_0_2_133
*743 FILLER_0_2_139
*744 FILLER_0_2_141
*745 FILLER_0_2_15
*746 FILLER_0_2_153
*747 FILLER_0_2_165
*748 FILLER_0_2_177
*749 FILLER_0_2_189
*750 FILLER_0_2_195
*751 FILLER_0_2_197
*752 FILLER_0_2_209
*753 FILLER_0_2_221
*754 FILLER_0_2_233
*755 FILLER_0_2_245
*756 FILLER_0_2_251
*757 FILLER_0_2_253
*758 FILLER_0_2_265
*759 FILLER_0_2_27
*760 FILLER_0_2_277
*761 FILLER_0_2_289
*762 FILLER_0_2_29
*763 FILLER_0_2_3
*764 FILLER_0_2_301
*765 FILLER_0_2_307
*766 FILLER_0_2_309
*767 FILLER_0_2_321
*768 FILLER_0_2_333
*769 FILLER_0_2_345
*770 FILLER_0_2_357
*771 FILLER_0_2_363
*772 FILLER_0_2_365
*773 FILLER_0_2_377
*774 FILLER_0_2_389
*775 FILLER_0_2_401
*776 FILLER_0_2_41
*777 FILLER_0_2_53
*778 FILLER_0_2_65
*779 FILLER_0_2_77
*780 FILLER_0_2_83
*781 FILLER_0_2_85
*782 FILLER_0_2_97
*783 FILLER_0_30_15
*784 FILLER_0_30_202
*785 FILLER_0_30_214
*786 FILLER_0_30_226
*787 FILLER_0_30_228
*788 FILLER_0_30_240
*789 FILLER_0_30_252
*790 FILLER_0_30_264
*791 FILLER_0_30_27
*792 FILLER_0_30_276
*793 FILLER_0_30_282
*794 FILLER_0_30_284
*795 FILLER_0_30_29
*796 FILLER_0_30_296
*797 FILLER_0_30_3
*798 FILLER_0_30_308
*799 FILLER_0_30_320
*800 FILLER_0_30_332
*801 FILLER_0_30_338
*802 FILLER_0_30_340
*803 FILLER_0_30_352
*804 FILLER_0_30_364
*805 FILLER_0_30_376
*806 FILLER_0_30_388
*807 FILLER_0_30_394
*808 FILLER_0_30_396
*809 FILLER_0_30_404
*810 FILLER_0_30_41
*811 FILLER_0_30_53
*812 FILLER_0_30_65
*813 FILLER_0_31_15
*814 FILLER_0_31_202
*815 FILLER_0_31_206
*816 FILLER_0_31_218
*817 FILLER_0_31_230
*818 FILLER_0_31_242
*819 FILLER_0_31_254
*820 FILLER_0_31_256
*821 FILLER_0_31_268
*822 FILLER_0_31_27
*823 FILLER_0_31_280
*824 FILLER_0_31_292
*825 FILLER_0_31_3
*826 FILLER_0_31_304
*827 FILLER_0_31_310
*828 FILLER_0_31_312
*829 FILLER_0_31_324
*830 FILLER_0_31_336
*831 FILLER_0_31_348
*832 FILLER_0_31_360
*833 FILLER_0_31_366
*834 FILLER_0_31_368
*835 FILLER_0_31_380
*836 FILLER_0_31_39
*837 FILLER_0_31_392
*838 FILLER_0_31_404
*839 FILLER_0_31_51
*840 FILLER_0_31_55
*841 FILLER_0_31_57
*842 FILLER_0_31_69
*843 FILLER_0_32_15
*844 FILLER_0_32_202
*845 FILLER_0_32_214
*846 FILLER_0_32_226
*847 FILLER_0_32_228
*848 FILLER_0_32_240
*849 FILLER_0_32_252
*850 FILLER_0_32_264
*851 FILLER_0_32_27
*852 FILLER_0_32_276
*853 FILLER_0_32_282
*854 FILLER_0_32_284
*855 FILLER_0_32_29
*856 FILLER_0_32_296
*857 FILLER_0_32_3
*858 FILLER_0_32_308
*859 FILLER_0_32_320
*860 FILLER_0_32_332
*861 FILLER_0_32_338
*862 FILLER_0_32_340
*863 FILLER_0_32_352
*864 FILLER_0_32_364
*865 FILLER_0_32_376
*866 FILLER_0_32_388
*867 FILLER_0_32_394
*868 FILLER_0_32_396
*869 FILLER_0_32_404
*870 FILLER_0_32_41
*871 FILLER_0_32_53
*872 FILLER_0_32_65
*873 FILLER_0_33_15
*874 FILLER_0_33_202
*875 FILLER_0_33_206
*876 FILLER_0_33_218
*877 FILLER_0_33_230
*878 FILLER_0_33_242
*879 FILLER_0_33_254
*880 FILLER_0_33_256
*881 FILLER_0_33_268
*882 FILLER_0_33_27
*883 FILLER_0_33_280
*884 FILLER_0_33_292
*885 FILLER_0_33_3
*886 FILLER_0_33_304
*887 FILLER_0_33_310
*888 FILLER_0_33_312
*889 FILLER_0_33_324
*890 FILLER_0_33_336
*891 FILLER_0_33_348
*892 FILLER_0_33_360
*893 FILLER_0_33_366
*894 FILLER_0_33_368
*895 FILLER_0_33_380
*896 FILLER_0_33_39
*897 FILLER_0_33_392
*898 FILLER_0_33_404
*899 FILLER_0_33_51
*900 FILLER_0_33_55
*901 FILLER_0_33_57
*902 FILLER_0_33_69
*903 FILLER_0_34_11
*904 FILLER_0_34_202
*905 FILLER_0_34_206
*906 FILLER_0_34_218
*907 FILLER_0_34_226
*908 FILLER_0_34_228
*909 FILLER_0_34_23
*910 FILLER_0_34_240
*911 FILLER_0_34_252
*912 FILLER_0_34_264
*913 FILLER_0_34_27
*914 FILLER_0_34_276
*915 FILLER_0_34_282
*916 FILLER_0_34_284
*917 FILLER_0_34_29
*918 FILLER_0_34_296
*919 FILLER_0_34_308
*920 FILLER_0_34_320
*921 FILLER_0_34_332
*922 FILLER_0_34_338
*923 FILLER_0_34_340
*924 FILLER_0_34_352
*925 FILLER_0_34_364
*926 FILLER_0_34_376
*927 FILLER_0_34_388
*928 FILLER_0_34_394
*929 FILLER_0_34_396
*930 FILLER_0_34_404
*931 FILLER_0_34_41
*932 FILLER_0_34_53
*933 FILLER_0_34_65
*934 FILLER_0_34_7
*935 FILLER_0_35_11
*936 FILLER_0_35_202
*937 FILLER_0_35_206
*938 FILLER_0_35_210
*939 FILLER_0_35_222
*940 FILLER_0_35_23
*941 FILLER_0_35_234
*942 FILLER_0_35_246
*943 FILLER_0_35_254
*944 FILLER_0_35_256
*945 FILLER_0_35_268
*946 FILLER_0_35_280
*947 FILLER_0_35_292
*948 FILLER_0_35_304
*949 FILLER_0_35_310
*950 FILLER_0_35_312
*951 FILLER_0_35_324
*952 FILLER_0_35_336
*953 FILLER_0_35_348
*954 FILLER_0_35_35
*955 FILLER_0_35_360
*956 FILLER_0_35_366
*957 FILLER_0_35_368
*958 FILLER_0_35_380
*959 FILLER_0_35_392
*960 FILLER_0_35_404
*961 FILLER_0_35_47
*962 FILLER_0_35_55
*963 FILLER_0_35_57
*964 FILLER_0_35_69
*965 FILLER_0_35_7
*966 FILLER_0_36_19
*967 FILLER_0_36_202
*968 FILLER_0_36_214
*969 FILLER_0_36_226
*970 FILLER_0_36_228
*971 FILLER_0_36_240
*972 FILLER_0_36_252
*973 FILLER_0_36_264
*974 FILLER_0_36_27
*975 FILLER_0_36_276
*976 FILLER_0_36_282
*977 FILLER_0_36_284
*978 FILLER_0_36_29
*979 FILLER_0_36_296
*980 FILLER_0_36_308
*981 FILLER_0_36_320
*982 FILLER_0_36_332
*983 FILLER_0_36_338
*984 FILLER_0_36_340
*985 FILLER_0_36_352
*986 FILLER_0_36_364
*987 FILLER_0_36_376
*988 FILLER_0_36_388
*989 FILLER_0_36_394
*990 FILLER_0_36_396
*991 FILLER_0_36_404
*992 FILLER_0_36_41
*993 FILLER_0_36_53
*994 FILLER_0_36_65
*995 FILLER_0_36_7
*996 FILLER_0_37_15
*997 FILLER_0_37_202
*998 FILLER_0_37_214
*999 FILLER_0_37_226
*1000 FILLER_0_37_238
*1001 FILLER_0_37_250
*1002 FILLER_0_37_254
*1003 FILLER_0_37_256
*1004 FILLER_0_37_268
*1005 FILLER_0_37_27
*1006 FILLER_0_37_280
*1007 FILLER_0_37_292
*1008 FILLER_0_37_3
*1009 FILLER_0_37_304
*1010 FILLER_0_37_310
*1011 FILLER_0_37_312
*1012 FILLER_0_37_324
*1013 FILLER_0_37_336
*1014 FILLER_0_37_348
*1015 FILLER_0_37_360
*1016 FILLER_0_37_366
*1017 FILLER_0_37_368
*1018 FILLER_0_37_380
*1019 FILLER_0_37_39
*1020 FILLER_0_37_392
*1021 FILLER_0_37_404
*1022 FILLER_0_37_51
*1023 FILLER_0_37_55
*1024 FILLER_0_37_57
*1025 FILLER_0_37_69
*1026 FILLER_0_38_15
*1027 FILLER_0_38_202
*1028 FILLER_0_38_206
*1029 FILLER_0_38_218
*1030 FILLER_0_38_226
*1031 FILLER_0_38_228
*1032 FILLER_0_38_240
*1033 FILLER_0_38_252
*1034 FILLER_0_38_264
*1035 FILLER_0_38_27
*1036 FILLER_0_38_276
*1037 FILLER_0_38_282
*1038 FILLER_0_38_284
*1039 FILLER_0_38_29
*1040 FILLER_0_38_296
*1041 FILLER_0_38_3
*1042 FILLER_0_38_308
*1043 FILLER_0_38_320
*1044 FILLER_0_38_332
*1045 FILLER_0_38_338
*1046 FILLER_0_38_340
*1047 FILLER_0_38_352
*1048 FILLER_0_38_364
*1049 FILLER_0_38_376
*1050 FILLER_0_38_388
*1051 FILLER_0_38_394
*1052 FILLER_0_38_396
*1053 FILLER_0_38_404
*1054 FILLER_0_38_41
*1055 FILLER_0_38_53
*1056 FILLER_0_38_65
*1057 FILLER_0_39_11
*1058 FILLER_0_39_202
*1059 FILLER_0_39_214
*1060 FILLER_0_39_226
*1061 FILLER_0_39_23
*1062 FILLER_0_39_238
*1063 FILLER_0_39_250
*1064 FILLER_0_39_254
*1065 FILLER_0_39_256
*1066 FILLER_0_39_268
*1067 FILLER_0_39_280
*1068 FILLER_0_39_292
*1069 FILLER_0_39_304
*1070 FILLER_0_39_310
*1071 FILLER_0_39_312
*1072 FILLER_0_39_324
*1073 FILLER_0_39_336
*1074 FILLER_0_39_348
*1075 FILLER_0_39_35
*1076 FILLER_0_39_360
*1077 FILLER_0_39_366
*1078 FILLER_0_39_368
*1079 FILLER_0_39_380
*1080 FILLER_0_39_392
*1081 FILLER_0_39_404
*1082 FILLER_0_39_47
*1083 FILLER_0_39_55
*1084 FILLER_0_39_57
*1085 FILLER_0_39_69
*1086 FILLER_0_39_7
*1087 FILLER_0_3_105
*1088 FILLER_0_3_111
*1089 FILLER_0_3_113
*1090 FILLER_0_3_125
*1091 FILLER_0_3_137
*1092 FILLER_0_3_149
*1093 FILLER_0_3_15
*1094 FILLER_0_3_161
*1095 FILLER_0_3_167
*1096 FILLER_0_3_169
*1097 FILLER_0_3_181
*1098 FILLER_0_3_193
*1099 FILLER_0_3_205
*1100 FILLER_0_3_217
*1101 FILLER_0_3_223
*1102 FILLER_0_3_225
*1103 FILLER_0_3_237
*1104 FILLER_0_3_249
*1105 FILLER_0_3_261
*1106 FILLER_0_3_27
*1107 FILLER_0_3_273
*1108 FILLER_0_3_279
*1109 FILLER_0_3_281
*1110 FILLER_0_3_293
*1111 FILLER_0_3_3
*1112 FILLER_0_3_305
*1113 FILLER_0_3_317
*1114 FILLER_0_3_329
*1115 FILLER_0_3_335
*1116 FILLER_0_3_337
*1117 FILLER_0_3_349
*1118 FILLER_0_3_361
*1119 FILLER_0_3_373
*1120 FILLER_0_3_385
*1121 FILLER_0_3_39
*1122 FILLER_0_3_391
*1123 FILLER_0_3_393
*1124 FILLER_0_3_405
*1125 FILLER_0_3_51
*1126 FILLER_0_3_55
*1127 FILLER_0_3_57
*1128 FILLER_0_3_69
*1129 FILLER_0_3_81
*1130 FILLER_0_3_93
*1131 FILLER_0_40_19
*1132 FILLER_0_40_202
*1133 FILLER_0_40_214
*1134 FILLER_0_40_226
*1135 FILLER_0_40_228
*1136 FILLER_0_40_240
*1137 FILLER_0_40_252
*1138 FILLER_0_40_264
*1139 FILLER_0_40_27
*1140 FILLER_0_40_276
*1141 FILLER_0_40_282
*1142 FILLER_0_40_284
*1143 FILLER_0_40_29
*1144 FILLER_0_40_296
*1145 FILLER_0_40_308
*1146 FILLER_0_40_320
*1147 FILLER_0_40_332
*1148 FILLER_0_40_338
*1149 FILLER_0_40_340
*1150 FILLER_0_40_352
*1151 FILLER_0_40_364
*1152 FILLER_0_40_376
*1153 FILLER_0_40_388
*1154 FILLER_0_40_394
*1155 FILLER_0_40_396
*1156 FILLER_0_40_404
*1157 FILLER_0_40_41
*1158 FILLER_0_40_53
*1159 FILLER_0_40_65
*1160 FILLER_0_40_7
*1161 FILLER_0_41_15
*1162 FILLER_0_41_202
*1163 FILLER_0_41_214
*1164 FILLER_0_41_226
*1165 FILLER_0_41_238
*1166 FILLER_0_41_250
*1167 FILLER_0_41_254
*1168 FILLER_0_41_256
*1169 FILLER_0_41_268
*1170 FILLER_0_41_27
*1171 FILLER_0_41_280
*1172 FILLER_0_41_292
*1173 FILLER_0_41_3
*1174 FILLER_0_41_304
*1175 FILLER_0_41_310
*1176 FILLER_0_41_312
*1177 FILLER_0_41_324
*1178 FILLER_0_41_336
*1179 FILLER_0_41_348
*1180 FILLER_0_41_360
*1181 FILLER_0_41_366
*1182 FILLER_0_41_368
*1183 FILLER_0_41_380
*1184 FILLER_0_41_39
*1185 FILLER_0_41_392
*1186 FILLER_0_41_404
*1187 FILLER_0_41_51
*1188 FILLER_0_41_55
*1189 FILLER_0_41_57
*1190 FILLER_0_41_69
*1191 FILLER_0_42_15
*1192 FILLER_0_42_202
*1193 FILLER_0_42_214
*1194 FILLER_0_42_226
*1195 FILLER_0_42_228
*1196 FILLER_0_42_240
*1197 FILLER_0_42_252
*1198 FILLER_0_42_264
*1199 FILLER_0_42_27
*1200 FILLER_0_42_276
*1201 FILLER_0_42_282
*1202 FILLER_0_42_284
*1203 FILLER_0_42_29
*1204 FILLER_0_42_296
*1205 FILLER_0_42_3
*1206 FILLER_0_42_308
*1207 FILLER_0_42_320
*1208 FILLER_0_42_332
*1209 FILLER_0_42_338
*1210 FILLER_0_42_340
*1211 FILLER_0_42_352
*1212 FILLER_0_42_364
*1213 FILLER_0_42_376
*1214 FILLER_0_42_388
*1215 FILLER_0_42_394
*1216 FILLER_0_42_396
*1217 FILLER_0_42_404
*1218 FILLER_0_42_41
*1219 FILLER_0_42_53
*1220 FILLER_0_42_65
*1221 FILLER_0_43_15
*1222 FILLER_0_43_202
*1223 FILLER_0_43_214
*1224 FILLER_0_43_226
*1225 FILLER_0_43_238
*1226 FILLER_0_43_250
*1227 FILLER_0_43_254
*1228 FILLER_0_43_256
*1229 FILLER_0_43_268
*1230 FILLER_0_43_27
*1231 FILLER_0_43_280
*1232 FILLER_0_43_292
*1233 FILLER_0_43_3
*1234 FILLER_0_43_304
*1235 FILLER_0_43_310
*1236 FILLER_0_43_312
*1237 FILLER_0_43_324
*1238 FILLER_0_43_336
*1239 FILLER_0_43_348
*1240 FILLER_0_43_360
*1241 FILLER_0_43_366
*1242 FILLER_0_43_368
*1243 FILLER_0_43_380
*1244 FILLER_0_43_39
*1245 FILLER_0_43_392
*1246 FILLER_0_43_404
*1247 FILLER_0_43_51
*1248 FILLER_0_43_55
*1249 FILLER_0_43_57
*1250 FILLER_0_43_69
*1251 FILLER_0_44_15
*1252 FILLER_0_44_202
*1253 FILLER_0_44_214
*1254 FILLER_0_44_226
*1255 FILLER_0_44_228
*1256 FILLER_0_44_240
*1257 FILLER_0_44_252
*1258 FILLER_0_44_264
*1259 FILLER_0_44_27
*1260 FILLER_0_44_276
*1261 FILLER_0_44_282
*1262 FILLER_0_44_284
*1263 FILLER_0_44_29
*1264 FILLER_0_44_296
*1265 FILLER_0_44_3
*1266 FILLER_0_44_308
*1267 FILLER_0_44_320
*1268 FILLER_0_44_332
*1269 FILLER_0_44_338
*1270 FILLER_0_44_340
*1271 FILLER_0_44_352
*1272 FILLER_0_44_364
*1273 FILLER_0_44_376
*1274 FILLER_0_44_388
*1275 FILLER_0_44_394
*1276 FILLER_0_44_396
*1277 FILLER_0_44_404
*1278 FILLER_0_44_41
*1279 FILLER_0_44_53
*1280 FILLER_0_44_65
*1281 FILLER_0_45_15
*1282 FILLER_0_45_202
*1283 FILLER_0_45_214
*1284 FILLER_0_45_226
*1285 FILLER_0_45_238
*1286 FILLER_0_45_250
*1287 FILLER_0_45_254
*1288 FILLER_0_45_256
*1289 FILLER_0_45_268
*1290 FILLER_0_45_27
*1291 FILLER_0_45_280
*1292 FILLER_0_45_292
*1293 FILLER_0_45_3
*1294 FILLER_0_45_304
*1295 FILLER_0_45_310
*1296 FILLER_0_45_312
*1297 FILLER_0_45_324
*1298 FILLER_0_45_336
*1299 FILLER_0_45_348
*1300 FILLER_0_45_360
*1301 FILLER_0_45_366
*1302 FILLER_0_45_368
*1303 FILLER_0_45_380
*1304 FILLER_0_45_39
*1305 FILLER_0_45_392
*1306 FILLER_0_45_404
*1307 FILLER_0_45_51
*1308 FILLER_0_45_55
*1309 FILLER_0_45_57
*1310 FILLER_0_45_69
*1311 FILLER_0_46_109
*1312 FILLER_0_46_113
*1313 FILLER_0_46_125
*1314 FILLER_0_46_137
*1315 FILLER_0_46_141
*1316 FILLER_0_46_15
*1317 FILLER_0_46_153
*1318 FILLER_0_46_165
*1319 FILLER_0_46_169
*1320 FILLER_0_46_181
*1321 FILLER_0_46_193
*1322 FILLER_0_46_197
*1323 FILLER_0_46_209
*1324 FILLER_0_46_221
*1325 FILLER_0_46_225
*1326 FILLER_0_46_237
*1327 FILLER_0_46_249
*1328 FILLER_0_46_253
*1329 FILLER_0_46_265
*1330 FILLER_0_46_27
*1331 FILLER_0_46_277
*1332 FILLER_0_46_281
*1333 FILLER_0_46_29
*1334 FILLER_0_46_293
*1335 FILLER_0_46_3
*1336 FILLER_0_46_305
*1337 FILLER_0_46_309
*1338 FILLER_0_46_321
*1339 FILLER_0_46_333
*1340 FILLER_0_46_337
*1341 FILLER_0_46_349
*1342 FILLER_0_46_361
*1343 FILLER_0_46_365
*1344 FILLER_0_46_377
*1345 FILLER_0_46_389
*1346 FILLER_0_46_393
*1347 FILLER_0_46_405
*1348 FILLER_0_46_41
*1349 FILLER_0_46_53
*1350 FILLER_0_46_57
*1351 FILLER_0_46_69
*1352 FILLER_0_46_81
*1353 FILLER_0_46_85
*1354 FILLER_0_46_97
*1355 FILLER_0_47_105
*1356 FILLER_0_47_111
*1357 FILLER_0_47_113
*1358 FILLER_0_47_125
*1359 FILLER_0_47_137
*1360 FILLER_0_47_149
*1361 FILLER_0_47_15
*1362 FILLER_0_47_161
*1363 FILLER_0_47_167
*1364 FILLER_0_47_169
*1365 FILLER_0_47_181
*1366 FILLER_0_47_193
*1367 FILLER_0_47_205
*1368 FILLER_0_47_217
*1369 FILLER_0_47_223
*1370 FILLER_0_47_225
*1371 FILLER_0_47_237
*1372 FILLER_0_47_249
*1373 FILLER_0_47_261
*1374 FILLER_0_47_27
*1375 FILLER_0_47_273
*1376 FILLER_0_47_279
*1377 FILLER_0_47_281
*1378 FILLER_0_47_293
*1379 FILLER_0_47_3
*1380 FILLER_0_47_305
*1381 FILLER_0_47_317
*1382 FILLER_0_47_329
*1383 FILLER_0_47_335
*1384 FILLER_0_47_337
*1385 FILLER_0_47_349
*1386 FILLER_0_47_361
*1387 FILLER_0_47_373
*1388 FILLER_0_47_385
*1389 FILLER_0_47_39
*1390 FILLER_0_47_391
*1391 FILLER_0_47_393
*1392 FILLER_0_47_405
*1393 FILLER_0_47_51
*1394 FILLER_0_47_55
*1395 FILLER_0_47_57
*1396 FILLER_0_47_69
*1397 FILLER_0_47_81
*1398 FILLER_0_47_93
*1399 FILLER_0_48_109
*1400 FILLER_0_48_121
*1401 FILLER_0_48_133
*1402 FILLER_0_48_139
*1403 FILLER_0_48_141
*1404 FILLER_0_48_15
*1405 FILLER_0_48_153
*1406 FILLER_0_48_165
*1407 FILLER_0_48_177
*1408 FILLER_0_48_189
*1409 FILLER_0_48_195
*1410 FILLER_0_48_197
*1411 FILLER_0_48_209
*1412 FILLER_0_48_221
*1413 FILLER_0_48_233
*1414 FILLER_0_48_245
*1415 FILLER_0_48_251
*1416 FILLER_0_48_253
*1417 FILLER_0_48_265
*1418 FILLER_0_48_27
*1419 FILLER_0_48_277
*1420 FILLER_0_48_289
*1421 FILLER_0_48_29
*1422 FILLER_0_48_3
*1423 FILLER_0_48_301
*1424 FILLER_0_48_307
*1425 FILLER_0_48_309
*1426 FILLER_0_48_321
*1427 FILLER_0_48_333
*1428 FILLER_0_48_345
*1429 FILLER_0_48_357
*1430 FILLER_0_48_363
*1431 FILLER_0_48_365
*1432 FILLER_0_48_377
*1433 FILLER_0_48_389
*1434 FILLER_0_48_401
*1435 FILLER_0_48_41
*1436 FILLER_0_48_53
*1437 FILLER_0_48_65
*1438 FILLER_0_48_77
*1439 FILLER_0_48_83
*1440 FILLER_0_48_85
*1441 FILLER_0_48_97
*1442 FILLER_0_49_105
*1443 FILLER_0_49_111
*1444 FILLER_0_49_113
*1445 FILLER_0_49_125